data_Tb3Ni
_audit_creation_method	'Created with CONVERT.DLL (www.crystalimpact.com)'
_audit_creation_date	2023-09-26
_audit_update_record	2023-09-26
_chemical_formula_sum	'Tb12 Ni4'
_chemical_formula_structural	'Tb3Ni'
_cell_length_a	 6.8532
_cell_length_b	 9.6277
_cell_length_c	 6.3358
_cell_angle_alpha	90.000
_cell_angle_beta	90.000
_cell_angle_gamma	90.000
_cell_volume	418.0
_cell_formula_units_Z	4
_symmetry_cell_setting	orthorhombic
_symmetry_int_tables_number	62
_symmetry_space_group_name_H-M	'P n m a'
_symmetry_space_group_name_Hall	'-P_2ac_2n'

loop_
_symmetry_equiv_pos_site_id
_symmetry_equiv_pos_as_xyz
1 x,y,z
2 1/2-x,-y,1/2+z
3 1/2+x,1/2-y,1/2-z
4 -x,1/2+y,-z
5 -x,-y,-z
6 1/2+x,y,1/2-z
7 1/2-x,1/2+y,1/2+z
8 x,1/2-y,z

loop_
_atom_type_symbol
_atom_type_oxidation_number
_atom_type_radius_bond
Tb	?	?
Ni	?	?


loop_
_atom_site_label
_atom_site_type_symbol
_atom_site_fract_x
_atom_site_fract_y
_atom_site_fract_z
_atom_site_occupancy
_atom_site_symmetry_multiplicity
_atom_site_Wyckoff_symbol
_atom_site_attached_hydrogens
_atom_site_calc_flag
_atom_site_thermal_displace_type
_atom_site_u_iso_or_equiv
Tb1 Tb  0.1789  0.0662  0.1765  1.000 8 d ? d ? ?
Tb2 Tb  0.0365  0.2500  0.6434  1.000 4 c ? d ? ?
Ni1 Ni  0.1100  0.7500  0.9414  1.000 4 c ? d ? ?

